data_image0
_chemical_formula_structural       PbSrZnTiO4
_chemical_formula_sum              "Pb1 Sr1 Zn1 Ti1 O4"
_cell_length_a       5.52233
_cell_length_b       5.52233
_cell_length_c       5.5349
_cell_angle_alpha    119.925
_cell_angle_beta     119.925
_cell_angle_gamma    90

_space_group_name_H-M_alt    "P 1"
_space_group_IT_number       1

loop_
  _space_group_symop_operation_xyz
  'x, y, z'

loop_
  _atom_site_type_symbol
  _atom_site_label
  _atom_site_symmetry_multiplicity
  _atom_site_fract_x
  _atom_site_fract_y
  _atom_site_fract_z
  _atom_site_occupancy
  Pb  Pb1       1.0  0.72111  0.23849  0.44486  1.0000
  Sr  Sr1       1.0  0.23359  0.73574  0.49327  1.0000
  Zn  Zn1       1.0  0.51954  0.50676  0.02787  1.0000
  Ti  Ti1       1.0  0.00728  0.96305  0.00833  1.0000
  O   O1        1.0  0.68092  0.80833  0.96674  1.0000
  O   O2        1.0  0.16134  0.64853  0.96093  1.0000
  O   O3        1.0  0.26441  0.21486  0.48969  1.0000
  O   O4        1.0  0.82510  0.90715  0.58136  1.0000
