data_image0
_chemical_formula_structural       Sr2ZnTiO6
_chemical_formula_sum              "Sr2 Zn1 Ti1 O6"
_cell_length_a       5.52233
_cell_length_b       5.52233
_cell_length_c       5.5349
_cell_angle_alpha    119.925
_cell_angle_beta     119.925
_cell_angle_gamma    90

_space_group_name_H-M_alt    "P 1"
_space_group_IT_number       1

loop_
  _space_group_symop_operation_xyz
  'x, y, z'

loop_
  _atom_site_type_symbol
  _atom_site_label
  _atom_site_symmetry_multiplicity
  _atom_site_fract_x
  _atom_site_fract_y
  _atom_site_fract_z
  _atom_site_occupancy
  Sr  Sr1       1.0  0.75000  0.25000  0.50000  1.0000
  Sr  Sr2       1.0  0.25000  0.75000  0.50000  1.0000
  Zn  Zn1       1.0  0.50000  0.50000  0.00000  1.0000
  Ti  Ti1       1.0  0.00000  1.00000  0.00000  1.0000
  O   O1        1.0  0.78945  0.27950  0.00000  1.0000
  O   O2        1.0  0.72050  0.78945  1.00000  1.0000
  O   O3        1.0  0.27950  0.21055  0.00000  1.0000
  O   O4        1.0  0.21055  0.72050  1.00000  1.0000
  O   O5        1.0  0.24593  0.24593  0.49185  1.0000
  O   O6        1.0  0.75407  0.75407  0.50815  1.0000
