data_image0
_chemical_formula_structural       SnSrZnTiO4
_chemical_formula_sum              "Sn1 Sr1 Zn1 Ti1 O4"
_cell_length_a       5.52233
_cell_length_b       5.52233
_cell_length_c       5.5349
_cell_angle_alpha    119.925
_cell_angle_beta     119.925
_cell_angle_gamma    90

_space_group_name_H-M_alt    "P 1"
_space_group_IT_number       1

loop_
  _space_group_symop_operation_xyz
  'x, y, z'

loop_
  _atom_site_type_symbol
  _atom_site_label
  _atom_site_symmetry_multiplicity
  _atom_site_fract_x
  _atom_site_fract_y
  _atom_site_fract_z
  _atom_site_occupancy
  Sn  Sn1       1.0  0.77930  0.24726  0.43598  1.0000
  Sr  Sr1       1.0  0.23889  0.73866  0.49567  1.0000
  Zn  Zn1       1.0  0.52845  0.47970  0.03182  1.0000
  Ti  Ti1       1.0  0.99664  0.94843  0.99391  1.0000
  O   O1        1.0  0.67459  0.78269  0.95994  1.0000
  O   O2        1.0  0.15864  0.64167  0.96271  1.0000
  O   O3        1.0  0.19906  0.21499  0.47239  1.0000
  O   O4        1.0  0.83772  0.96950  0.62065  1.0000
