data_image0
_chemical_formula_structural       BaSrZnTiO5
_chemical_formula_sum              "Ba1 Sr1 Zn1 Ti1 O5"
_cell_length_a       5.52233
_cell_length_b       5.52233
_cell_length_c       5.5349
_cell_angle_alpha    119.925
_cell_angle_beta     119.925
_cell_angle_gamma    90

_space_group_name_H-M_alt    "P 1"
_space_group_IT_number       1

loop_
  _space_group_symop_operation_xyz
  'x, y, z'

loop_
  _atom_site_type_symbol
  _atom_site_label
  _atom_site_symmetry_multiplicity
  _atom_site_fract_x
  _atom_site_fract_y
  _atom_site_fract_z
  _atom_site_occupancy
  Ba  Ba1       1.0  0.74929  0.24581  0.50751  1.0000
  Sr  Sr1       1.0  0.25004  0.74608  0.50674  1.0000
  Zn  Zn1       1.0  0.48983  0.50621  0.99140  1.0000
  Ti  Ti1       1.0  0.02332  0.97181  0.99576  1.0000
  O   O1        1.0  0.71440  0.79027  0.97668  1.0000
  O   O2        1.0  0.26329  0.20977  0.97848  1.0000
  O   O3        1.0  0.24402  0.74753  0.06248  1.0000
  O   O4        1.0  0.20560  0.27988  0.46596  1.0000
  O   O5        1.0  0.78335  0.73516  0.50268  1.0000
