data_image0
_chemical_formula_structural       CaSrZnTiO5
_chemical_formula_sum              "Ca1 Sr1 Zn1 Ti1 O5"
_cell_length_a       5.52233
_cell_length_b       5.52233
_cell_length_c       5.5349
_cell_angle_alpha    119.925
_cell_angle_beta     119.925
_cell_angle_gamma    90

_space_group_name_H-M_alt    "P 1"
_space_group_IT_number       1

loop_
  _space_group_symop_operation_xyz
  'x, y, z'

loop_
  _atom_site_type_symbol
  _atom_site_label
  _atom_site_symmetry_multiplicity
  _atom_site_fract_x
  _atom_site_fract_y
  _atom_site_fract_z
  _atom_site_occupancy
  Ca  Ca1       1.0  0.72365  0.22364  0.47420  1.0000
  Sr  Sr1       1.0  0.27001  0.75914  0.51574  1.0000
  Zn  Zn1       1.0  0.48736  0.52129  0.00484  1.0000
  Ti  Ti1       1.0  0.02675  0.97096  0.99997  1.0000
  O   O1        1.0  0.73010  0.84313  0.03524  1.0000
  O   O2        1.0  0.31378  0.21333  0.02840  1.0000
  O   O3        1.0  0.12986  0.64105  0.88894  1.0000
  O   O4        1.0  0.31018  0.21585  0.49814  1.0000
  O   O5        1.0  0.73143  0.84414  0.54224  1.0000
