data_image0
_chemical_formula_structural       PbSrZnTiO5
_chemical_formula_sum              "Pb1 Sr1 Zn1 Ti1 O5"
_cell_length_a       5.52233
_cell_length_b       5.52233
_cell_length_c       5.5349
_cell_angle_alpha    119.925
_cell_angle_beta     119.925
_cell_angle_gamma    90

_space_group_name_H-M_alt    "P 1"
_space_group_IT_number       1

loop_
  _space_group_symop_operation_xyz
  'x, y, z'

loop_
  _atom_site_type_symbol
  _atom_site_label
  _atom_site_symmetry_multiplicity
  _atom_site_fract_x
  _atom_site_fract_y
  _atom_site_fract_z
  _atom_site_occupancy
  Pb  Pb1       1.0  0.75517  0.21822  0.47608  1.0000
  Sr  Sr1       1.0  0.25546  0.74446  0.50548  1.0000
  Zn  Zn1       1.0  0.48863  0.50184  0.98399  1.0000
  Ti  Ti1       1.0  0.02467  0.97034  0.99213  1.0000
  O   O1        1.0  0.70944  0.80380  0.99015  1.0000
  O   O2        1.0  0.30983  0.20962  0.01463  1.0000
  O   O3        1.0  0.22672  0.73188  0.05022  1.0000
  O   O4        1.0  0.17298  0.28219  0.45809  1.0000
  O   O5        1.0  0.78023  0.77017  0.51693  1.0000
